<?xml version="1.0" encoding="UTF-8"?>

<!-- generated on 2024-03-30 12:34:18.067412 by osmWebWizard.py v1_19_0+0000-baa66a0f364
<configuration>
    <net-file value="C:\Users\salsh\Sumo\2024-03-30-12-34-11\osm.net.xml.gz"/>
    <output-trip-file value="C:\Users\salsh\Sumo\2024-03-30-12-34-11\osm.passenger.trips.xml"/>
    <route-file value="C:\Users\salsh\Sumo\2024-03-30-12-34-11\osm.passenger.rou.xml"/>
    <prefix value="veh"/>
    <trip-attributes value="departLane=&quot;best&quot;"/>
    <fringe-start-attributes value="departSpeed=&quot;max&quot;"/>
    <vehicle-class value="passenger"/>
    <lanes value="True"/>
    <fringe-factor value="2"/>
    <allow-fringe.min-length value="1000.0"/>
    <via-edge-types value="highway.motorway,highway.motorway_link,highway.trunk_link,highway.primary_link,highway.secondary_link,highway.tertiary_link"/>
    <min-distance value="300.0"/>
    <min-distance.fringe value="10.0"/>
    <remove-loops value="True"/>
    <validate value="True"/>
    <insertion-density value="2.0"/>
</configuration>
-->

<!-- generated on 2024-03-30 12:34:17 by Eclipse SUMO duarouter Version 1.19.0
<configuration xmlns:xsi="http://www.w3.org/2001/XMLSchema-instance" xsi:noNamespaceSchemaLocation="http://sumo.dlr.de/xsd/duarouterConfiguration.xsd">

    <input>
        <net-file value="C:\Users\salsh\Sumo\2024-03-30-12-34-11\osm.net.xml.gz"/>
        <route-files value="C:\Users\salsh\Sumo\2024-03-30-12-34-11\osm.passenger.trips.xml"/>
    </input>

    <output>
        <output-file value="C:\Users\salsh\Sumo\2024-03-30-12-34-11\osm.passenger.trips.xml.tmp"/>
        <alternatives-output value="NUL"/>
        <write-trips value="true"/>
    </output>

    <processing>
        <remove-loops value="true"/>
    </processing>

    <time>
        <begin value="0.0"/>
        <end value="3600.0"/>
    </time>

    <report>
        <no-warnings value="true"/>
        <ignore-errors value="true"/>
        <no-step-log value="true"/>
    </report>

</configuration>
-->

<routes xmlns:xsi="http://www.w3.org/2001/XMLSchema-instance" xsi:noNamespaceSchemaLocation="http://sumo.dlr.de/xsd/routes_file.xsd">
    <vType id="veh_passenger" vClass="passenger"/>
    <trip id="veh0" type="veh_passenger" depart="0.00" departLane="best" from="533870735" to="1144863835"/>
    <trip id="veh1" type="veh_passenger" depart="6.10" departLane="best" from="9132318#0" to="-9131391#1"/>
    <trip id="veh2" type="veh_passenger" depart="12.20" departLane="best" from="707960059#0" to="826815503#0"/>
    <trip id="veh3" type="veh_passenger" depart="18.30" departLane="best" from="9139208" to="31121880#0"/>
    <trip id="veh4" type="veh_passenger" depart="24.40" departLane="best" from="-9149014#8" to="-1174272375#1"/>
    <trip id="veh5" type="veh_passenger" depart="30.50" departLane="best" departSpeed="max" from="-9126368" to="244085621"/>
    <trip id="veh6" type="veh_passenger" depart="36.60" departLane="best" from="533877668" to="396592426#24"/>
    <trip id="veh7" type="veh_passenger" depart="42.71" departLane="best" from="-9127629" to="533885863"/>
    <trip id="veh8" type="veh_passenger" depart="48.81" departLane="best" departSpeed="max" from="9127907#0" to="1028574518#6"/>
    <trip id="veh10" type="veh_passenger" depart="61.01" departLane="best" departSpeed="max" from="-9140950#2" to="9115965#0"/>
    <trip id="veh11" type="veh_passenger" depart="67.11" departLane="best" from="9148984#1" to="-9149014#1"/>
    <trip id="veh12" type="veh_passenger" depart="73.21" departLane="best" from="-31121880#7" to="-396592426#22"/>
    <trip id="veh13" type="veh_passenger" depart="79.31" departLane="best" from="9132136#0" to="533897293"/>
    <trip id="veh14" type="veh_passenger" depart="85.41" departLane="best" from="9127294#0" to="9125624#0"/>
    <trip id="veh15" type="veh_passenger" depart="91.51" departLane="best" from="1144863825" to="9151749"/>
    <trip id="veh16" type="veh_passenger" depart="97.61" departLane="best" departSpeed="max" from="-9143857#6" to="533870753"/>
    <trip id="veh17" type="veh_passenger" depart="103.71" departLane="best" from="9130540#0" to="533897316"/>
    <trip id="veh18" type="veh_passenger" depart="109.81" departLane="best" from="-9134037#0" to="533877721"/>
    <trip id="veh22" type="veh_passenger" depart="134.22" departLane="best" from="-357286721#1" to="-9140950#0"/>
    <trip id="veh23" type="veh_passenger" depart="140.32" departLane="best" from="532052743#1" to="9152340#0"/>
    <trip id="veh24" type="veh_passenger" depart="146.42" departLane="best" from="-9143098#0" to="-9130304#4"/>
    <trip id="veh25" type="veh_passenger" depart="152.52" departLane="best" from="-9132005#3" to="9148032"/>
    <trip id="veh26" type="veh_passenger" depart="158.62" departLane="best" from="533877666#4" to="533897307"/>
    <trip id="veh27" type="veh_passenger" depart="164.72" departLane="best" from="9118921#0" to="9125624#0"/>
    <trip id="veh28" type="veh_passenger" depart="170.82" departLane="best" from="9115605#1" to="1027545688#1"/>
    <trip id="veh29" type="veh_passenger" depart="176.92" departLane="best" from="9152906#0" to="591090402#2"/>
    <trip id="veh30" type="veh_passenger" depart="183.02" departLane="best" from="1220199393" to="9115615"/>
    <trip id="veh31" type="veh_passenger" depart="189.12" departLane="best" from="9132004#0" to="-9130540#1"/>
    <trip id="veh33" type="veh_passenger" depart="201.33" departLane="best" from="-9125914#5" to="9148727#1"/>
    <trip id="veh34" type="veh_passenger" depart="207.43" departLane="best" from="-9136063#11" to="-9144763#2"/>
    <trip id="veh35" type="veh_passenger" depart="213.53" departLane="best" from="533877701" to="1040697752#2"/>
    <trip id="veh37" type="veh_passenger" depart="225.73" departLane="best" from="-9131555" to="-9134314#4"/>
    <trip id="veh38" type="veh_passenger" depart="231.83" departLane="best" from="-133114874#2" to="9138204#0"/>
    <trip id="veh39" type="veh_passenger" depart="237.93" departLane="best" from="244085615" to="9143039#0"/>
    <trip id="veh40" type="veh_passenger" depart="244.03" departLane="best" from="-9147751#2" to="9130955#6"/>
    <trip id="veh41" type="veh_passenger" depart="250.13" departLane="best" from="9153966#1" to="-244085635#0"/>
    <trip id="veh43" type="veh_passenger" depart="262.33" departLane="best" from="533877669" to="533897323"/>
    <trip id="veh44" type="veh_passenger" depart="268.44" departLane="best" from="9123547#1" to="-1049476777"/>
    <trip id="veh45" type="veh_passenger" depart="274.54" departLane="best" from="-244085613#4" to="1028574518#10"/>
    <trip id="veh48" type="veh_passenger" depart="292.84" departLane="best" from="-1040697752#1" to="-9123547#3"/>
    <trip id="veh49" type="veh_passenger" depart="298.94" departLane="best" from="533885866" to="329363593"/>
    <trip id="veh50" type="veh_passenger" depart="305.04" departLane="best" from="-9132005#3" to="591090402#2"/>
    <trip id="veh51" type="veh_passenger" depart="311.14" departLane="best" from="533883178" to="112472419#0"/>
    <trip id="veh52" type="veh_passenger" depart="317.24" departLane="best" departSpeed="max" from="-9152340#2" to="9149409#0"/>
    <trip id="veh53" type="veh_passenger" depart="323.34" departLane="best" from="9136063#8" to="-9138204#2"/>
    <trip id="veh54" type="veh_passenger" depart="329.44" departLane="best" from="1049473273#2" to="9123630#3"/>
    <trip id="veh55" type="veh_passenger" depart="335.54" departLane="best" from="9141919#1" to="9141152#1"/>
    <trip id="veh57" type="veh_passenger" depart="347.75" departLane="best" from="-293806758#0" to="-9115605#1"/>
    <trip id="veh58" type="veh_passenger" depart="353.85" departLane="best" from="9121103#0" to="308629440#1"/>
    <trip id="veh59" type="veh_passenger" depart="359.95" departLane="best" from="1010473586" to="-9147992#3"/>
    <trip id="veh60" type="veh_passenger" depart="366.05" departLane="best" from="-1049476780" to="9147781"/>
    <trip id="veh61" type="veh_passenger" depart="372.15" departLane="best" from="9137523#2" to="9136063#8"/>
    <trip id="veh62" type="veh_passenger" depart="378.25" departLane="best" from="-9136063#8" to="-244085618"/>
    <trip id="veh63" type="veh_passenger" depart="384.35" departLane="best" from="9137523#0" to="9148987"/>
    <trip id="veh64" type="veh_passenger" depart="390.45" departLane="best" from="-30479428#4" to="244073466"/>
    <trip id="veh66" type="veh_passenger" depart="402.65" departLane="best" from="88144316#4" to="-707960059#5"/>
    <trip id="veh67" type="veh_passenger" depart="408.75" departLane="best" from="1028574518#10" to="-533655086#8"/>
    <trip id="veh68" type="veh_passenger" depart="414.85" departLane="best" from="9132004#0" to="-9141306#1"/>
    <trip id="veh70" type="veh_passenger" depart="427.06" departLane="best" from="1144863828" to="9125738"/>
    <trip id="veh71" type="veh_passenger" depart="433.16" departLane="best" departSpeed="max" from="-9123630#4" to="-9144545#1"/>
    <trip id="veh72" type="veh_passenger" depart="439.26" departLane="best" from="-9153471#0" to="707960059#0"/>
    <trip id="veh73" type="veh_passenger" depart="445.36" departLane="best" departSpeed="max" from="-9150300" to="-288229286#4"/>
    <trip id="veh74" type="veh_passenger" depart="451.46" departLane="best" from="-580745282" to="-9132005#11"/>
    <trip id="veh75" type="veh_passenger" depart="457.56" departLane="best" from="-9140780#5" to="533885862"/>
    <trip id="veh76" type="veh_passenger" depart="463.66" departLane="best" from="-9128279#1" to="9131126#1"/>
    <trip id="veh77" type="veh_passenger" depart="469.76" departLane="best" from="-244085624" to="556593213#0"/>
    <trip id="veh80" type="veh_passenger" depart="488.06" departLane="best" from="-9128891#2" to="-1198939885"/>
    <trip id="veh81" type="veh_passenger" depart="494.16" departLane="best" from="-9126024#1" to="-714430063#4"/>
    <trip id="veh82" type="veh_passenger" depart="500.27" departLane="best" from="-9144545#4" to="533877715#0"/>
    <trip id="veh83" type="veh_passenger" depart="506.37" departLane="best" from="1022645346" to="-9130955#6"/>
    <trip id="veh86" type="veh_passenger" depart="524.67" departLane="best" from="-9151905#4" to="532052743#1"/>
    <trip id="veh87" type="veh_passenger" depart="530.77" departLane="best" departSpeed="max" from="-9147821#1" to="-9149014#8"/>
    <trip id="veh88" type="veh_passenger" depart="536.87" departLane="best" from="-9134037#0" to="-9134455#1"/>
    <trip id="veh89" type="veh_passenger" depart="542.97" departLane="best" departSpeed="max" from="-9122664#1" to="288227435"/>
    <trip id="veh90" type="veh_passenger" depart="549.07" departLane="best" from="-9149014#8" to="-9140950#0"/>
    <trip id="veh91" type="veh_passenger" depart="555.17" departLane="best" departSpeed="max" from="-9130372" to="9146699"/>
    <trip id="veh92" type="veh_passenger" depart="561.27" departLane="best" departSpeed="max" from="-9151630#1" to="9140768"/>
    <trip id="veh94" type="veh_passenger" depart="573.48" departLane="best" from="981068201#0" to="9136744"/>
    <trip id="veh96" type="veh_passenger" depart="585.68" departLane="best" from="9132136#2" to="9122509#1"/>
    <trip id="veh97" type="veh_passenger" depart="591.78" departLane="best" from="-1040697749#0" to="-9130955#20"/>
    <trip id="veh98" type="veh_passenger" depart="597.88" departLane="best" departSpeed="max" from="-9147807" to="-244085620"/>
    <trip id="veh99" type="veh_passenger" depart="603.98" departLane="best" departSpeed="max" from="-9143857#6" to="9153009"/>
    <trip id="veh100" type="veh_passenger" depart="610.08" departLane="best" from="9132004#0" to="9130955#42"/>
    <trip id="veh101" type="veh_passenger" depart="616.18" departLane="best" from="-9152906#0" to="-1049476779#0"/>
    <trip id="veh104" type="veh_passenger" depart="634.48" departLane="best" from="826815503#0" to="-9142741#1"/>
    <trip id="veh105" type="veh_passenger" depart="640.58" departLane="best" departSpeed="max" from="9149640#0" to="-533883205"/>
    <trip id="veh106" type="veh_passenger" depart="646.68" departLane="best" from="1144863831" to="-9127907#1"/>
    <trip id="veh109" type="veh_passenger" depart="664.99" departLane="best" from="-88144316#3" to="9149949"/>
    <trip id="veh111" type="veh_passenger" depart="677.19" departLane="best" from="244085635#1" to="-808644403#8"/>
    <trip id="veh112" type="veh_passenger" depart="683.29" departLane="best" from="-9128583#3" to="-588440503#0"/>
    <trip id="veh114" type="veh_passenger" depart="695.49" departLane="best" from="244085635#0" to="533897316"/>
    <trip id="veh115" type="veh_passenger" depart="701.59" departLane="best" from="-9149014#1" to="533885857"/>
    <trip id="veh116" type="veh_passenger" depart="707.69" departLane="best" from="1065053569" to="-9147992#7"/>
    <trip id="veh117" type="veh_passenger" depart="713.79" departLane="best" departSpeed="max" from="-9124339" to="9122737#0"/>
    <trip id="veh118" type="veh_passenger" depart="719.89" departLane="best" from="-9128891#4" to="1040697752#2"/>
    <trip id="veh119" type="veh_passenger" depart="725.99" departLane="best" from="533883234" to="-9143098#1"/>
    <trip id="veh121" type="veh_passenger" depart="738.20" departLane="best" from="-244085626" to="1157608575#2"/>
    <trip id="veh122" type="veh_passenger" depart="744.30" departLane="best" departSpeed="max" from="917679514#0" to="9153863"/>
    <trip id="veh123" type="veh_passenger" depart="750.40" departLane="best" from="-244085632" to="-9130955#18"/>
    <trip id="veh124" type="veh_passenger" depart="756.50" departLane="best" from="9132004#0" to="9147992#3"/>
    <trip id="veh126" type="veh_passenger" depart="768.70" departLane="best" from="-9143039#1" to="9117273"/>
    <trip id="veh127" type="veh_passenger" depart="774.80" departLane="best" from="9130955#24" to="9122408#0"/>
    <trip id="veh129" type="veh_passenger" depart="787.00" departLane="best" from="533877691#0" to="1028574518#9"/>
    <trip id="veh130" type="veh_passenger" depart="793.10" departLane="best" from="9128279#2" to="-9143098#0"/>
    <trip id="veh131" type="veh_passenger" depart="799.20" departLane="best" from="533877720" to="9148123"/>
    <trip id="veh132" type="veh_passenger" depart="805.31" departLane="best" departSpeed="max" from="-673409920" to="-580745281"/>
    <trip id="veh133" type="veh_passenger" depart="811.41" departLane="best" from="9132136#0" to="-9126865#1"/>
    <trip id="veh135" type="veh_passenger" depart="823.61" departLane="best" departSpeed="max" from="531792162#0" to="9138508#0"/>
    <trip id="veh136" type="veh_passenger" depart="829.71" departLane="best" from="1040697752#2" to="9143857#1"/>
    <trip id="veh137" type="veh_passenger" depart="835.81" departLane="best" from="9132088#1" to="33522963#0"/>
    <trip id="veh140" type="veh_passenger" depart="854.11" departLane="best" from="533655086#4" to="-9137996"/>
    <trip id="veh141" type="veh_passenger" depart="860.21" departLane="best" departSpeed="max" from="714430063#0" to="533870753"/>
    <trip id="veh142" type="veh_passenger" depart="866.31" departLane="best" from="-9149628#0" to="1040697749#1"/>
    <trip id="veh143" type="veh_passenger" depart="872.41" departLane="best" from="-244085635#2" to="9141824#5"/>
    <trip id="veh144" type="veh_passenger" depart="878.51" departLane="best" from="9141306#2" to="533897322#0"/>
    <trip id="veh145" type="veh_passenger" depart="884.62" departLane="best" from="9130955#32" to="533885857"/>
    <trip id="veh146" type="veh_passenger" depart="890.72" departLane="best" from="755339492" to="-653860192"/>
    <trip id="veh147" type="veh_passenger" depart="896.82" departLane="best" departSpeed="max" from="-9136140#1" to="-9143098#1"/>
    <trip id="veh149" type="veh_passenger" depart="909.02" departLane="best" departSpeed="max" from="9140950#0" to="-9130540#0"/>
    <trip id="veh150" type="veh_passenger" depart="915.12" departLane="best" departSpeed="max" from="-9130372" to="-533877666#3"/>
    <trip id="veh151" type="veh_passenger" depart="921.22" departLane="best" from="9121145#0" to="9141836"/>
    <trip id="veh152" type="veh_passenger" depart="927.32" departLane="best" departSpeed="max" from="-9148030#1" to="533897319"/>
    <trip id="veh153" type="veh_passenger" depart="933.42" departLane="best" from="826815503#0" to="9147781"/>
    <trip id="veh154" type="veh_passenger" depart="939.52" departLane="best" from="9134314#2" to="-9151809#4"/>
    <trip id="veh155" type="veh_passenger" depart="945.62" departLane="best" from="9127907#2" to="9141822#0"/>
    <trip id="veh156" type="veh_passenger" depart="951.72" departLane="best" from="1089414861" to="9126024#1"/>
    <trip id="veh157" type="veh_passenger" depart="957.83" departLane="best" departSpeed="max" from="-9140560#1" to="9147807"/>
    <trip id="veh158" type="veh_passenger" depart="963.93" departLane="best" from="912591437#0" to="9140780#4"/>
    <trip id="veh159" type="veh_passenger" depart="970.03" departLane="best" from="9127907#1" to="-9138705#0"/>
    <trip id="veh160" type="veh_passenger" depart="976.13" departLane="best" from="-9122688#5" to="-533883194#0"/>
    <trip id="veh162" type="veh_passenger" depart="988.33" departLane="best" from="-9127845#1" to="9134314#1"/>
    <trip id="veh164" type="veh_passenger" depart="1000.53" departLane="best" from="-9123840" to="-9132088#1"/>
    <trip id="veh165" type="veh_passenger" depart="1006.63" departLane="best" from="1065053569" to="-9127907#1"/>
    <trip id="veh166" type="veh_passenger" depart="1012.73" departLane="best" from="-9139059#1" to="9140780#4"/>
    <trip id="veh167" type="veh_passenger" depart="1018.83" departLane="best" from="-9149628#0" to="-9140950#1"/>
    <trip id="veh168" type="veh_passenger" depart="1024.93" departLane="best" from="533877653#0" to="1049229613#10"/>
    <trip id="veh169" type="veh_passenger" depart="1031.03" departLane="best" departSpeed="max" from="9151805#0" to="329363593"/>
    <trip id="veh170" type="veh_passenger" depart="1037.14" departLane="best" from="9145359#1" to="-580745281"/>
    <trip id="veh171" type="veh_passenger" depart="1043.24" departLane="best" from="9149640#3" to="9123630#3"/>
    <trip id="veh173" type="veh_passenger" depart="1055.44" departLane="best" from="533877666#4" to="112472419#0"/>
    <trip id="veh174" type="veh_passenger" depart="1061.54" departLane="best" from="-591090397#11" to="-9144545#4"/>
    <trip id="veh176" type="veh_passenger" depart="1073.74" departLane="best" from="9144763#2" to="533877721"/>
    <trip id="veh177" type="veh_passenger" depart="1079.84" departLane="best" from="9130955#18" to="9122557"/>
    <trip id="veh178" type="veh_passenger" depart="1085.94" departLane="best" from="-1027545688#1" to="9146724"/>
    <trip id="veh179" type="veh_passenger" depart="1092.04" departLane="best" from="1144863826#1" to="9123102"/>
    <trip id="veh180" type="veh_passenger" depart="1098.14" departLane="best" from="714430063#4" to="755339496#0"/>
    <trip id="veh182" type="veh_passenger" depart="1110.35" departLane="best" from="533877721" to="-9148625#2"/>
    <trip id="veh183" type="veh_passenger" depart="1116.45" departLane="best" departSpeed="max" from="580744136#0" to="-9143098#1"/>
    <trip id="veh185" type="veh_passenger" depart="1128.65" departLane="best" departSpeed="max" from="-9147821#1" to="-9142741#0"/>
    <trip id="veh186" type="veh_passenger" depart="1134.75" departLane="best" from="-591090397#7" to="-1049476775"/>
    <trip id="veh188" type="veh_passenger" depart="1146.95" departLane="best" from="-9141154#3" to="533897314"/>
    <trip id="veh190" type="veh_passenger" depart="1159.15" departLane="best" from="1010473586" to="9141694#0"/>
    <trip id="veh191" type="veh_passenger" depart="1165.25" departLane="best" departSpeed="max" from="-9149628#3" to="-533883194#0"/>
    <trip id="veh192" type="veh_passenger" depart="1171.35" departLane="best" from="533877701" to="120880386#1"/>
    <trip id="veh194" type="veh_passenger" depart="1183.55" departLane="best" departSpeed="max" from="9123853" to="-9122688#1"/>
    <trip id="veh195" type="veh_passenger" depart="1189.66" departLane="best" from="-30479428#1" to="288229283"/>
    <trip id="veh196" type="veh_passenger" depart="1195.76" departLane="best" departSpeed="max" from="531792162#0" to="-9148984#0"/>
    <trip id="veh198" type="veh_passenger" depart="1207.96" departLane="best" from="533885857" to="-9132005#11"/>
    <trip id="veh199" type="veh_passenger" depart="1214.06" departLane="best" from="-9123630#0" to="-1144863815#2"/>
    <trip id="veh202" type="veh_passenger" depart="1232.36" departLane="best" from="-9148727#2" to="545515069"/>
    <trip id="veh204" type="veh_passenger" depart="1244.56" departLane="best" from="1049229613#10" to="9134037#3"/>
    <trip id="veh205" type="veh_passenger" depart="1250.66" departLane="best" from="533877709" to="1028574518#4"/>
    <trip id="veh207" type="veh_passenger" depart="1262.87" departLane="best" from="533870735" to="1049476781"/>
    <trip id="veh210" type="veh_passenger" depart="1281.17" departLane="best" departSpeed="max" from="-9130372" to="-9138705#3"/>
    <trip id="veh211" type="veh_passenger" depart="1287.27" departLane="best" departSpeed="max" from="-9153008" to="9132552#1"/>
    <trip id="veh213" type="veh_passenger" depart="1299.47" departLane="best" from="-244085635#2" to="9149014#4"/>
    <trip id="veh214" type="veh_passenger" depart="1305.57" departLane="best" from="-9139059#1" to="533897313"/>
    <trip id="veh215" type="veh_passenger" depart="1311.67" departLane="best" from="556593213#0" to="244085617"/>
    <trip id="veh216" type="veh_passenger" depart="1317.77" departLane="best" from="9130715#0" to="532052743#3"/>
    <trip id="veh217" type="veh_passenger" depart="1323.87" departLane="best" from="9140906#0" to="9127629"/>
    <trip id="veh218" type="veh_passenger" depart="1329.97" departLane="best" from="-1028574498#3" to="-9137523#2"/>
    <trip id="veh219" type="veh_passenger" depart="1336.07" departLane="best" departSpeed="max" from="-9130096" to="591090397#0"/>
    <trip id="veh220" type="veh_passenger" depart="1342.18" departLane="best" from="88144316#4" to="-293806758#2"/>
    <trip id="veh221" type="veh_passenger" depart="1348.28" departLane="best" from="-33522963#2" to="9140780#2"/>
    <trip id="veh222" type="veh_passenger" depart="1354.38" departLane="best" from="-288229286#2" to="-9141308#3"/>
    <trip id="veh224" type="veh_passenger" depart="1366.58" departLane="best" from="1144863828" to="-742028157#5"/>
    <trip id="veh225" type="veh_passenger" depart="1372.68" departLane="best" from="-9128279#3" to="9118921#1"/>
    <trip id="veh226" type="veh_passenger" depart="1378.78" departLane="best" from="533897314" to="-244085635#0"/>
    <trip id="veh227" type="veh_passenger" depart="1384.88" departLane="best" departSpeed="max" from="-9148037" to="-385055854#3"/>
    <trip id="veh228" type="veh_passenger" depart="1390.98" departLane="best" from="-9148736#1" to="9129007#1"/>
    <trip id="veh229" type="veh_passenger" depart="1397.08" departLane="best" from="9149014#13" to="9143857#0"/>
    <trip id="veh230" type="veh_passenger" depart="1403.18" departLane="best" from="-244085613#2" to="9119426#1"/>
    <trip id="veh232" type="veh_passenger" depart="1415.39" departLane="best" from="9144332#1" to="1028574518#4"/>
    <trip id="veh234" type="veh_passenger" depart="1427.59" departLane="best" from="9132681#1" to="-9149366#2"/>
    <trip id="veh235" type="veh_passenger" depart="1433.69" departLane="best" from="-9149014#1" to="-9127907#0"/>
    <trip id="veh236" type="veh_passenger" depart="1439.79" departLane="best" from="1144863834" to="533897293"/>
    <trip id="veh237" type="veh_passenger" depart="1445.89" departLane="best" from="-9127629" to="-9130955#6"/>
    <trip id="veh238" type="veh_passenger" depart="1451.99" departLane="best" from="-9150171#3" to="1165184094#0"/>
    <trip id="veh239" type="veh_passenger" depart="1458.09" departLane="best" from="-9140780#2" to="88144316#0"/>
    <trip id="veh240" type="veh_passenger" depart="1464.19" departLane="best" from="9147992#5" to="-9122339"/>
    <trip id="veh242" type="veh_passenger" depart="1476.39" departLane="best" from="31121880#5" to="1157608575#0"/>
    <trip id="veh243" type="veh_passenger" depart="1482.49" departLane="best" departSpeed="max" from="-9146699" to="533877684#0"/>
    <trip id="veh244" type="veh_passenger" depart="1488.59" departLane="best" departSpeed="max" from="-1144863816" to="591090956"/>
    <trip id="veh245" type="veh_passenger" depart="1494.70" departLane="best" from="-707960059#1" to="1174272376"/>
    <trip id="veh246" type="veh_passenger" depart="1500.80" departLane="best" departSpeed="max" from="-244073466" to="1022645346"/>
    <trip id="veh247" type="veh_passenger" depart="1506.90" departLane="best" from="-912591437#3" to="9148032"/>
    <trip id="veh248" type="veh_passenger" depart="1513.00" departLane="best" from="-808644403#8" to="1022645346"/>
    <trip id="veh249" type="veh_passenger" depart="1519.10" departLane="best" from="749638794#1" to="-9136063#8"/>
    <trip id="veh250" type="veh_passenger" depart="1525.20" departLane="best" from="9130715#0" to="-30479431#2"/>
    <trip id="veh251" type="veh_passenger" depart="1531.30" departLane="best" from="1049476780" to="33522963#0"/>
    <trip id="veh253" type="veh_passenger" depart="1543.50" departLane="best" from="533877669" to="-9130955#31"/>
    <trip id="veh254" type="veh_passenger" depart="1549.60" departLane="best" from="533877684#0" to="9128279#2"/>
    <trip id="veh255" type="veh_passenger" depart="1555.70" departLane="best" departSpeed="max" from="9148050#0" to="9128279#2"/>
    <trip id="veh256" type="veh_passenger" depart="1561.80" departLane="best" from="1049476781" to="-9115605#1"/>
    <trip id="veh257" type="veh_passenger" depart="1567.91" departLane="best" from="-591090397#11" to="755339496#0"/>
    <trip id="veh258" type="veh_passenger" depart="1574.01" departLane="best" from="-226386582#1" to="9130955#37"/>
    <trip id="veh260" type="veh_passenger" depart="1586.21" departLane="best" from="-9116559#1" to="533897306#0"/>
    <trip id="veh263" type="veh_passenger" depart="1604.51" departLane="best" from="533877666#4" to="1144863836#0"/>
    <trip id="veh265" type="veh_passenger" depart="1616.71" departLane="best" from="9149014#0" to="-1040697753#1"/>
    <trip id="veh266" type="veh_passenger" depart="1622.81" departLane="best" from="531792162#1" to="-293806758#1"/>
    <trip id="veh267" type="veh_passenger" depart="1628.91" departLane="best" from="533897289" to="533897323"/>
    <trip id="veh268" type="veh_passenger" depart="1635.01" departLane="best" from="385055854#4" to="9130096"/>
    <trip id="veh269" type="veh_passenger" depart="1641.11" departLane="best" departSpeed="max" from="9132353#0" to="533897289"/>
    <trip id="veh270" type="veh_passenger" depart="1647.22" departLane="best" from="580745282" to="9152906#1"/>
    <trip id="veh271" type="veh_passenger" depart="1653.32" departLane="best" from="-9122509#0" to="-9149640#0"/>
    <trip id="veh274" type="veh_passenger" depart="1671.62" departLane="best" departSpeed="max" from="9132353#0" to="9134790"/>
    <trip id="veh275" type="veh_passenger" depart="1677.72" departLane="best" from="533655086#4" to="9149949"/>
    <trip id="veh276" type="veh_passenger" depart="1683.82" departLane="best" from="-532052743#1" to="9135982"/>
    <trip id="veh277" type="veh_passenger" depart="1689.92" departLane="best" from="591090959#0" to="-742023565#1"/>
    <trip id="veh282" type="veh_passenger" depart="1720.43" departLane="best" from="9130955#1" to="31121880#0"/>
    <trip id="veh283" type="veh_passenger" depart="1726.53" departLane="best" departSpeed="max" from="9137996" to="9134037#3"/>
    <trip id="veh285" type="veh_passenger" depart="1738.73" departLane="best" departSpeed="max" from="-9143857#6" to="1165184094#0"/>
    <trip id="veh287" type="veh_passenger" depart="1750.93" departLane="best" from="-912591438#0" to="-9132136#3"/>
    <trip id="veh288" type="veh_passenger" depart="1757.03" departLane="best" departSpeed="max" from="-9140950#2" to="9141694#2"/>
    <trip id="veh289" type="veh_passenger" depart="1763.13" departLane="best" from="533897312" to="-9140780#5"/>
    <trip id="veh290" type="veh_passenger" depart="1769.23" departLane="best" from="-1040697749#0" to="9149014#0"/>
    <trip id="veh291" type="veh_passenger" depart="1775.33" departLane="best" from="-30479428#4" to="9123547#0"/>
    <trip id="veh293" type="veh_passenger" depart="1787.53" departLane="best" from="533897289" to="-653860192"/>
    <trip id="veh294" type="veh_passenger" depart="1793.63" departLane="best" from="1040697756" to="9132041"/>
    <trip id="veh295" type="veh_passenger" depart="1799.74" departLane="best" from="-329363591" to="-9131126#3"/>
    <trip id="veh296" type="veh_passenger" depart="1805.84" departLane="best" from="533897290" to="9143857#4"/>
    <trip id="veh297" type="veh_passenger" depart="1811.94" departLane="best" from="244083348#1" to="133114874#7"/>
    <trip id="veh298" type="veh_passenger" depart="1818.04" departLane="best" from="1144863818" to="-1049476782"/>
    <trip id="veh299" type="veh_passenger" depart="1824.14" departLane="best" from="742028157#1" to="-9148626#0"/>
    <trip id="veh300" type="veh_passenger" depart="1830.24" departLane="best" from="533897313" to="-9139059#0"/>
    <trip id="veh302" type="veh_passenger" depart="1842.44" departLane="best" from="9122688#2" to="-588440503#0"/>
    <trip id="veh303" type="veh_passenger" depart="1848.54" departLane="best" from="1144863825" to="9128891#2"/>